<?xml version="1.0" encoding="UTF-8"?>

<!-- generated on 2024-10-09 01:24:32 by Eclipse SUMO GUI Version 1.20.0
-->

<configuration xmlns:xsi="http://www.w3.org/2001/XMLSchema-instance" xsi:noNamespaceSchemaLocation="http://sumo.dlr.de/xsd/sumoConfiguration.xsd">

    <input>
        <net-file value="quickstart.net.xml"/>
    </input>

</configuration>
